Circuit: *** SPICE deck for cell ComplexFunction_1_lay_sim{lay} from library SCL

Ignoring BSIM parameter HDIF
Ignoring BSIM parameter ACM
Ignoring BSIM parameter XL
Ignoring BSIM parameter XW
Ignoring BSIM parameter HDIF
Ignoring BSIM parameter ACM
Ignoring BSIM parameter XL
Ignoring BSIM parameter XW
Direct Newton iteration for .op point succeeded.

tpdr=4.98576e-010 FROM 2.2e-008 TO 2.24986e-008
tpdf=4.12776e-010 FROM 1.06667e-008 TO 1.10794e-008


Date: Sat Oct 26 17:23:02 2019
Total elapsed time: 0.078 seconds.

tnom = 27
temp = 27
method = modified trap
totiter = 2149
traniter = 2127
tranpoints = 1058
accept = 1054
rejected = 4
matrix size = 8
fillins = 0
solver = Normal
Matrix Compiler1: 354 bytes object code size  0.1/0.1/[0.0]
Matrix Compiler2: 690 bytes object code size  0.1/0.1/[0.1]

