Circuit: *** SPICE deck for cell ComplexFunction_2_lay_sim{lay} from library SCL

Ignoring BSIM parameter HDIF
Ignoring BSIM parameter ACM
Ignoring BSIM parameter XL
Ignoring BSIM parameter XW
Ignoring BSIM parameter HDIF
Ignoring BSIM parameter ACM
Ignoring BSIM parameter XL
Ignoring BSIM parameter XW
WARNING: Node NET@6 is floating.

Direct Newton iteration for .op point succeeded.

tpdr=2.79666e-010 FROM 2.2e-008 TO 2.22797e-008
tpdf=1.78115e-010 FROM 1.06667e-008 TO 1.08448e-008


Date: Sat Oct 26 17:35:29 2019
Total elapsed time: 0.197 seconds.

tnom = 27
temp = 27
method = modified trap
totiter = 2203
traniter = 2178
tranpoints = 1058
accept = 1054
rejected = 4
matrix size = 9
fillins = 0
solver = Normal
Matrix Compiler1: 582 bytes object code size  0.2/0.1/[0.1]
Matrix Compiler2: 865 bytes object code size  0.1/0.1/[0.1]

