Questionable use of curly braces in ".measure tpd param={(tpdr+tpdf)/2}"
    Error: undefined symbol in: "([tpdr]+tpdf)/2"
Circuit: *** SPICE deck for cell inverter_sim_2{lay} from library SCL-(4)

Ignoring BSIM parameter HDIF
Ignoring BSIM parameter ACM
Ignoring BSIM parameter XL
Ignoring BSIM parameter XW
Ignoring BSIM parameter HDIF
Ignoring BSIM parameter ACM
Ignoring BSIM parameter XL
Ignoring BSIM parameter XW
Direct Newton iteration for .op point succeeded.

tpd: ((tpdr+tpdf)/2)=3.14906e-010
tpdr=3.26279e-010 FROM 2.10005e-008 TO 2.13268e-008
tpdf=3.03533e-010 FROM 1.03335e-008 TO 1.0637e-008


Date: Sat Oct 26 21:20:29 2019
Total elapsed time: 0.308 seconds.

tnom = 27
temp = 27
method = modified trap
totiter = 2146
traniter = 2140
tranpoints = 1058
accept = 1054
rejected = 4
matrix size = 5
fillins = 0
solver = Normal
Matrix Compiler1:       8 opcodes  0.1/[0.1]/0.2
Matrix Compiler2: off  [0.1]/0.2/0.1

