Questionable use of curly braces in ".measure tpd param={(tpdr+tpdf)/2}"
    Error: undefined symbol in: "([tpdr]+tpdf)/2"
Circuit: *** SPICE deck for cell inverter_sim{lay} from library SCL-(4)

Ignoring BSIM parameter HDIF
Ignoring BSIM parameter ACM
Ignoring BSIM parameter XL
Ignoring BSIM parameter XW
Ignoring BSIM parameter HDIF
Ignoring BSIM parameter ACM
Ignoring BSIM parameter XL
Ignoring BSIM parameter XW
Limiting rise time of source vin to 1e-009
Limiting fall time of source vin to 1e-009
Direct Newton iteration for .op point succeeded.

tpd: ((tpdr+tpdf)/2)=5.0113e-010
tpdr=5.19366e-010 FROM 2.15e-008 TO 2.20194e-008
tpdf=4.82895e-010 FROM 1.05e-008 TO 1.09829e-008


Date: Sat Oct 26 19:55:05 2019
Total elapsed time: 0.276 seconds.

tnom = 27
temp = 27
method = modified trap
totiter = 2139
traniter = 2132
tranpoints = 1065
accept = 1061
rejected = 4
matrix size = 5
fillins = 0
solver = Normal
Matrix Compiler1: 132 bytes object code size  0.8/0.1/[0.0]
Matrix Compiler2: 335 bytes object code size  0.1/0.1/[0.1]

