Circuit: *** SPICE deck for cell NAND3_1_lay_sim{lay} from library SCL

Ignoring BSIM parameter HDIF
Ignoring BSIM parameter ACM
Ignoring BSIM parameter XL
Ignoring BSIM parameter XW
Ignoring BSIM parameter HDIF
Ignoring BSIM parameter ACM
Ignoring BSIM parameter XL
Ignoring BSIM parameter XW
Direct Newton iteration for .op point succeeded.

tpdr=6.50894e-010 FROM 2.2e-008 TO 2.26509e-008
tpdf=2.89444e-010 FROM 1.06667e-008 TO 1.09561e-008


Date: Sat Oct 26 17:59:51 2019
Total elapsed time: 0.085 seconds.

tnom = 27
temp = 27
method = modified trap
totiter = 2156
traniter = 2131
tranpoints = 1058
accept = 1054
rejected = 4
matrix size = 7
fillins = 0
solver = Normal
Matrix Compiler1: 304 bytes object code size  0.1/0.1/[0.1]
Matrix Compiler2: 577 bytes object code size  0.1/0.1/[0.1]

