Circuit: *** SPICE deck for cell NAND3_4_lay_sim{lay} from library SCL

Ignoring BSIM parameter HDIF
Ignoring BSIM parameter ACM
Ignoring BSIM parameter XL
Ignoring BSIM parameter XW
Ignoring BSIM parameter HDIF
Ignoring BSIM parameter ACM
Ignoring BSIM parameter XL
Ignoring BSIM parameter XW
Direct Newton iteration for .op point succeeded.

tpdr=4.18667e-010 FROM 2.2e-008 TO 2.24187e-008
tpdf=6.10149e-011 FROM 1.06667e-008 TO 1.07277e-008


Date: Sat Oct 26 18:27:31 2019
Total elapsed time: 0.068 seconds.

tnom = 27
temp = 27
method = modified trap
totiter = 2243
traniter = 2219
tranpoints = 1065
accept = 1057
rejected = 8
matrix size = 7
fillins = 0
solver = Normal
Matrix Compiler1: 304 bytes object code size  0.1/0.1/[0.0]
Matrix Compiler2: off  [0.1]/0.1/0.1

