Circuit: *** SPICE deck for cell NAND3_2_lay_sim{lay} from library SCL

Ignoring BSIM parameter HDIF
Ignoring BSIM parameter ACM
Ignoring BSIM parameter XL
Ignoring BSIM parameter XW
Ignoring BSIM parameter HDIF
Ignoring BSIM parameter ACM
Ignoring BSIM parameter XL
Ignoring BSIM parameter XW
Direct Newton iteration for .op point succeeded.

tpdr=5.14661e-010 FROM 2.2e-008 TO 2.25147e-008
tpdf=1.4791e-010 FROM 1.06667e-008 TO 1.08146e-008


Date: Sat Oct 26 18:16:59 2019
Total elapsed time: 0.065 seconds.

tnom = 27
temp = 27
method = modified trap
totiter = 2215
traniter = 2191
tranpoints = 1064
accept = 1058
rejected = 6
matrix size = 7
fillins = 0
solver = Normal
Matrix Compiler1: 304 bytes object code size  0.1/0.1/[0.1]
Matrix Compiler2: off  [0.1]/0.1/0.1

