Questionable use of curly braces in ".measure tpd param={(tpdr+tpdf)/2}"
    Error: undefined symbol in: "([tpdr]+tpdf)/2"
Circuit: *** SPICE deck for cell NOR2_sim{lay} from library SCL-(4)

Ignoring BSIM parameter HDIF
Ignoring BSIM parameter ACM
Ignoring BSIM parameter XL
Ignoring BSIM parameter XW
Ignoring BSIM parameter HDIF
Ignoring BSIM parameter ACM
Ignoring BSIM parameter XL
Ignoring BSIM parameter XW
WARNING: Node NET_8 is floating.
WARNING: Node OUT is floating.

WARNING: Less than two connections to node OUT.  This node is used by CLOAD.
Warning: Ps = 3.863e-006 is less than W.
Direct Newton iteration for .op point succeeded.

tpd: ((tpdr+tpdf)/2)=1.38003e-010
tpdr=-1.10545e-011 FROM 2.19995e-008 TO 2.19884e-008
tpdf=2.8706e-010 FROM 1.06665e-008 TO 1.09536e-008


Date: Sat Oct 26 20:40:06 2019
Total elapsed time: 0.197 seconds.

tnom = 27
temp = 27
method = modified trap
totiter = 2231
traniter = 2224
tranpoints = 1070
accept = 1061
rejected = 9
matrix size = 9
fillins = 0
solver = Normal
Matrix Compiler1: 412 bytes object code size  0.1/0.1/[0.1]
Matrix Compiler2: off  [0.1]/0.1/0.1

