Questionable use of curly braces in ".measure tpd param={(tpdr+tpdf)/2}"
    Error: undefined symbol in: "([tpdr]+tpdf)/2"
Circuit: *** SPICE deck for cell NOR4_sim{lay} from library SCL-(4)

Ignoring BSIM parameter HDIF
Ignoring BSIM parameter ACM
Ignoring BSIM parameter XL
Ignoring BSIM parameter XW
Ignoring BSIM parameter HDIF
Ignoring BSIM parameter ACM
Ignoring BSIM parameter XL
Ignoring BSIM parameter XW
Limiting rise time of source vin to 1e-009
Limiting fall time of source vin to 1e-009
WARNING: Node OUT is floating.

WARNING: Less than two connections to node OUT.  This node is used by CLOAD.
Warning: Ps = 6.025e-006 is less than W.
Direct Newton iteration for .op point succeeded.

tpd: ((tpdr+tpdf)/2)=1.27276e-010
tpdr=2.1161e-011 FROM 2.15e-008 TO 2.15212e-008
tpdf=2.33391e-010 FROM 1.05e-008 TO 1.07334e-008


Date: Sat Oct 26 20:55:31 2019
Total elapsed time: 0.228 seconds.

tnom = 27
temp = 27
method = modified trap
totiter = 2257
traniter = 2250
tranpoints = 1079
accept = 1065
rejected = 14
matrix size = 8
fillins = 0
solver = Normal
Matrix Compiler1: 264 bytes object code size  0.1/0.1/[0.1]
Matrix Compiler2: off  [0.1]/0.2/0.1

