Questionable use of curly braces in ".measure tpd param={(tpdr+tpdf)/2}"
    Error: undefined symbol in: "([tpdr]+tpdf)/2"
Circuit: *** SPICE deck for cell tri_state_sim_2{lay} from library SCL-(4)

Ignoring BSIM parameter HDIF
Ignoring BSIM parameter ACM
Ignoring BSIM parameter XL
Ignoring BSIM parameter XW
Ignoring BSIM parameter HDIF
Ignoring BSIM parameter ACM
Ignoring BSIM parameter XL
Ignoring BSIM parameter XW
Limiting rise time of source vin to 1e-009
Limiting fall time of source vin to 1e-009
Direct Newton iteration for .op point succeeded.

tpd: ((tpdr+tpdf)/2)=1.17502e-010
tpdr=1.39802e-010 FROM 2.15e-008 TO 2.16398e-008
tpdf=9.52018e-011 FROM 1.05e-008 TO 1.05952e-008


Date: Sat Oct 26 19:47:30 2019
Total elapsed time: 0.236 seconds.

tnom = 27
temp = 27
method = modified trap
totiter = 2218
traniter = 2195
tranpoints = 1071
accept = 1061
rejected = 10
matrix size = 7
fillins = 0
solver = Normal
Matrix Compiler1: 250 bytes object code size  0.2/0.1/[0.1]
Matrix Compiler2: off  [0.2]/0.2/0.2

